
New "LineCode.mtx605" nphases=1 baseFreq=60 rmatrix=[1.3291999999999999 ] xmatrix=[1.3474999999999999 ] units=mi
New "LineCode.mtx607" nphases=1 baseFreq=60 rmatrix=[1.3425 ] xmatrix=[0.51239999999999997 ] cmatrix=[236 ] units=mi
